LTspice 26.0.1 for Windows
Circuit: C:\Users\ma378458\Documents\EEL3123C\Project05-Circuit-Design-2\Design.net
Start Time: Tue Jul 21 09:10:47 2026
solver = Normal
Maximum thread count: 24
tnom = 27
temp = 27
method = trap
.OP point found by inspection.
.OP point found by inspection.
Total elapsed time: 0.023 seconds.

Files loaded:
C:\Users\ma378458\Documents\EEL3123C\Project05-Circuit-Design-2\Design.net

